/*--------------------------------*- C++ -*----------------------------------*\
  =========                 |
  \\      /  F ield         | OpenFOAM: The Open Source CFD Toolbox
   \\    /   O peration     | Website:  https://openfoam.org
    \\  /    A nd           | Version:  7
     \\/     M anipulation  |
\*---------------------------------------------------------------------------*/
FoamFile
{
    version     2.0;
    format      ascii;
    class       dictionary;
    object      particleTrackProperties;
}
// * * * * * * * * * * * * * * * * * * * * * * * * * * * * * * * * * * * * * //

cloudName       sprayCloud;//reactingCloud1

fields
(
    d
    U
    T
);

// Number of track is nPoints/sampleFrequency
// Average number of points in each track
sampleFrequency 2;

// Max number of points in each track
maxPositions    1000000;

// ************************************************************************* //
